<?xml version="1.0" encoding="UTF-8"?>

<!-- generated on 2026-05-12T22:10:57.231415+00:00 by Eclipse SUMO netedit v1.26.0-0000000000
-->

<routes xmlns:xsi="http://www.w3.org/2001/XMLSchema-instance" xsi:noNamespaceSchemaLocation="http://sumo.dlr.de/xsd/routes_file.xsd">
    <!-- Vehicles, persons and containers (sorted by depart) -->
    <trip id="t_0" depart="0.00" from="24642837" to="149039343#0"/>
    <trip id="t_1" depart="0.00" from="-166682861#6" to="83551740#1"/>
    <trip id="t_2" depart="0.00" from="427015320#0" to="83551740#1"/>
    <trip id="t_3" depart="0.00" from="673575586" to="1330856120#2"/>
    <trip id="t_4" depart="0.00" from="543574669#0" to="348513086#1"/>
    <trip id="t_5" depart="0.00" from="-543556733#6" to="83551740#1"/>
    <trip id="t_6" depart="0.00" from="543574669#0" to="83551740#1"/>
    <trip id="t_7" depart="0.00" from="24635880#2" to="-543556733#0"/>
</routes>
