<?xml version="1.0" encoding="UTF-8"?>

<!-- generated on 2026-04-01T16:26:11.494015+00:00 by Eclipse SUMO netedit 1.25.0
-->

<routes xmlns:xsi="http://www.w3.org/2001/XMLSchema-instance" xsi:noNamespaceSchemaLocation="http://sumo.dlr.de/xsd/routes_file.xsd">
    <!-- Vehicles, persons and containers (sorted by depart) -->
    <trip id="t_0" depart="0.00" from="24642837" to="149039343#0"/>
    <trip id="t_1" depart="0.00" from="-166682861#6" to="83551740#1"/>
    <flow id="f_0" begin="0.00" end="3600.00" perHour="1800.00" from="673575586" to="149039343#0" via="-27320024#2"/>
    <flow id="f_1" begin="0.00" end="3600.00" perHour="1800.00" from="673575586" to="149039343#0" via="775956653"/>
    <flow id="f_2" begin="0.00" end="3600.00" perHour="1800.00" from="-166682861#6" to="427015320#0"/>
    <flow id="f_3" begin="0.00" end="3600.00" perHour="1800.00" from="427015320#0" to="166682861#6"/>
</routes>
