<?xml version="1.0" encoding="UTF-8"?>

<!-- generated on 2026-04-01T16:16:25.467884+00:00 by Eclipse SUMO netconvert 1.25.0
<netconvertConfiguration xmlns:xsi="http://www.w3.org/2001/XMLSchema-instance" xsi:noNamespaceSchemaLocation="http://sumo.dlr.de/xsd/netconvertConfiguration.xsd">

    <input>
        <osm-files value="map.osm"/>
    </input>

    <output>
        <output-file value="limassol.net.xml"/>
    </output>

    <projection>
        <proj.utm value="true"/>
    </projection>

    <junctions>
        <junctions.join value="true"/>
    </junctions>

</netconvertConfiguration>
-->

<net version="1.20" junctionCornerDetail="5" limitTurnSpeed="5.50" xmlns:xsi="http://www.w3.org/2001/XMLSchema-instance" xsi:noNamespaceSchemaLocation="http://sumo.dlr.de/xsd/net_file.xsd">

    <location netOffset="-503661.25,-3836661.93" convBoundary="0.00,0.00,1105.06,1279.08" origBoundary="33.039964,34.671919,33.052033,34.683450" projParameter="+proj=utm +zone=36 +ellps=WGS84 +datum=WGS84 +units=m +no_defs"/>

    <type id="highway.cycleway" priority="1" numLanes="1" speed="5.56" allow="bicycle" oneway="0" width="2.00"/>
    <type id="highway.footway" priority="1" numLanes="1" speed="2.78" allow="pedestrian" oneway="1" width="2.00"/>
    <type id="highway.path" priority="1" numLanes="1" speed="5.56" allow="pedestrian bicycle" oneway="0" width="2.00"/>
    <type id="highway.pedestrian" priority="1" numLanes="1" speed="2.78" allow="pedestrian" oneway="1" width="2.00"/>
    <type id="highway.primary" priority="12" numLanes="2" speed="27.78" disallow="tram rail_urban rail rail_electric rail_fast ship container cable_car subway aircraft wheelchair scooter drone" oneway="0"/>
    <type id="highway.residential" priority="3" numLanes="1" speed="13.89" disallow="tram rail_urban rail rail_electric rail_fast ship container cable_car subway aircraft wheelchair scooter drone" oneway="0"/>
    <type id="highway.secondary" priority="11" numLanes="1" speed="27.78" disallow="tram rail_urban rail rail_electric rail_fast ship container cable_car subway aircraft wheelchair scooter drone" oneway="0"/>
    <type id="highway.service" priority="1" numLanes="1" speed="5.56" allow="pedestrian delivery bicycle" oneway="0"/>
    <type id="highway.steps" priority="1" numLanes="1" speed="1.39" allow="pedestrian" oneway="1" width="2.00"/>
    <type id="highway.tertiary" priority="10" numLanes="1" speed="22.22" disallow="tram rail_urban rail rail_electric rail_fast ship container cable_car subway aircraft wheelchair scooter drone" oneway="0"/>

    <edge id=":10112256638_0" function="internal">
        <lane id=":10112256638_0_0" index="0" allow="pedestrian delivery bicycle" speed="6.03" length="7.90" shape="192.38,376.69 191.09,375.91 190.47,374.50 190.49,372.44 191.18,369.73"/>
    </edge>
    <edge id=":10112256638_1" function="internal">
        <lane id=":10112256638_1_0" index="0" allow="pedestrian delivery bicycle" speed="3.65" length="4.67" shape="192.38,376.69 191.44,375.59 191.27,374.72 191.87,374.05 193.24,373.60"/>
    </edge>
    <edge id=":10112256638_2" function="internal">
        <lane id=":10112256638_2_0" index="0" disallow="tram rail_urban rail rail_electric rail_fast ship container cable_car subway aircraft wheelchair scooter drone" speed="8.33" length="9.41" shape="188.20,378.65 191.18,369.73"/>
    </edge>
    <edge id=":10112256638_3" function="internal">
        <lane id=":10112256638_3_0" index="0" allow="pedestrian delivery bicycle" speed="6.22" length="7.84" shape="188.20,378.65 189.25,376.12 190.44,374.44 191.77,373.60 193.24,373.60"/>
    </edge>
    <edge id=":10112256639_0" function="internal">
        <lane id=":10112256639_0_0" index="0" allow="pedestrian delivery bicycle" speed="3.65" length="4.67" shape="209.74,379.26 210.61,380.42 210.72,381.30 210.07,381.93 208.68,382.28"/>
    </edge>
    <edge id=":10112256654_0" function="internal">
        <lane id=":10112256654_0_0" index="0" allow="pedestrian delivery bicycle" speed="3.65" length="4.67" shape="178.96,291.55 177.95,290.52 177.72,289.65 178.28,288.95 179.62,288.41"/>
    </edge>
    <edge id=":10112256665_0" function="internal">
        <lane id=":10112256665_0_0" index="0" allow="pedestrian delivery bicycle" speed="6.28" length="7.88" shape="229.75,259.06 228.78,257.94 228.52,256.38 228.98,254.36 230.16,251.89"/>
    </edge>
    <edge id=":10112256665_1" function="internal">
        <lane id=":10112256665_1_0" index="0" allow="pedestrian delivery bicycle" speed="3.65" length="4.67" shape="229.75,259.06 229.20,257.73 229.32,256.84 230.09,256.40 231.54,256.41"/>
    </edge>
    <edge id=":10112256665_2" function="internal">
        <lane id=":10112256665_2_0" index="0" disallow="tram rail_urban rail rail_electric rail_fast ship container cable_car subway aircraft wheelchair scooter drone" speed="8.33" length="9.42" shape="225.48,260.06 230.16,251.89"/>
    </edge>
    <edge id=":10112256665_3" function="internal">
        <lane id=":10112256665_3_0" index="0" allow="pedestrian delivery bicycle" speed="6.01" length="7.96" shape="225.48,260.06 227.06,257.74 228.59,256.36 230.09,255.92 231.54,256.41"/>
    </edge>
    <edge id=":10112256674_0" function="internal">
        <lane id=":10112256674_0_0" index="0" allow="pedestrian delivery bicycle" speed="3.65" length="4.67" shape="256.65,269.58 257.61,270.65 257.80,271.53 257.21,272.20 255.85,272.68"/>
    </edge>
    <edge id=":10779263256_0" function="internal">
        <lane id=":10779263256_0_0" index="0" allow="pedestrian delivery bicycle" speed="3.65" length="4.67" shape="768.93,703.47 767.49,703.29 766.78,702.76 766.78,701.86 767.49,700.61"/>
    </edge>
    <edge id=":10922057036_0" function="internal">
        <lane id=":10922057036_0_0" index="0" allow="pedestrian delivery bicycle" speed="3.65" length="4.67" shape="576.66,744.63 576.09,743.30 576.18,742.41 576.95,741.96 578.40,741.93"/>
    </edge>
    <edge id=":10922057049_0" function="internal">
        <lane id=":10922057049_0_0" index="0" allow="pedestrian delivery bicycle" speed="3.65" length="4.67" shape="566.69,760.13 566.12,758.80 566.21,757.91 566.98,757.46 568.43,757.43"/>
    </edge>
    <edge id=":11010729350_0" function="internal">
        <lane id=":11010729350_0_0" index="0" allow="pedestrian delivery bicycle" speed="3.65" length="4.67" shape="386.38,302.20 385.01,302.65 384.14,302.46 383.76,301.65 383.88,300.22"/>
    </edge>
    <edge id=":11012603292_0" function="internal">
        <lane id=":11012603292_0_0" index="0" disallow="tram rail_urban rail rail_electric rail_fast ship container cable_car subway aircraft wheelchair scooter drone" speed="8.33" length="9.58" shape="393.81,345.05 387.51,352.28"/>
    </edge>
    <edge id=":11012603292_1" function="internal">
        <lane id=":11012603292_1_0" index="0" allow="pedestrian delivery bicycle" speed="5.91" length="8.32" shape="393.81,345.05 391.79,347.12 389.98,348.16 388.37,348.16 386.97,347.13"/>
    </edge>
    <edge id=":11012603292_2" function="internal">
        <lane id=":11012603292_2_0" index="0" allow="pedestrian delivery bicycle" speed="6.50" length="8.16" shape="389.43,345.07 390.16,346.54 390.09,348.23 389.20,350.14 387.51,352.28"/>
    </edge>
    <edge id=":11012603292_3" function="internal">
        <lane id=":11012603292_3_0" index="0" allow="pedestrian delivery bicycle" speed="3.65" length="4.67" shape="389.43,345.07 389.59,346.51 389.23,347.33 388.36,347.53 386.97,347.13"/>
    </edge>
    <edge id=":11028573180_0" function="internal">
        <lane id=":11028573180_0_0" index="0" disallow="tram rail_urban rail rail_electric rail_fast ship container cable_car subway aircraft wheelchair scooter drone" speed="13.89" length="9.52" shape="473.85,153.59 480.70,160.20"/>
    </edge>
    <edge id=":11028573180_1" function="internal">
        <lane id=":11028573180_1_0" index="0" allow="pedestrian delivery bicycle" speed="6.20" length="7.95" shape="473.85,153.59 475.75,155.58 476.79,157.37 476.98,158.96 476.31,160.34"/>
    </edge>
    <edge id=":11028573180_2" function="internal">
        <lane id=":11028573180_2_0" index="0" allow="pedestrian delivery bicycle" speed="5.99" length="8.02" shape="473.88,158.26 475.17,157.37 476.74,157.39 478.58,158.34 480.70,160.20"/>
    </edge>
    <edge id=":11028573180_3" function="internal">
        <lane id=":11028573180_3_0" index="0" allow="pedestrian delivery bicycle" speed="3.65" length="4.67" shape="473.88,158.26 475.27,157.86 476.14,158.08 476.49,158.90 476.31,160.34"/>
    </edge>
    <edge id=":11028573189_0" function="internal">
        <lane id=":11028573189_0_0" index="0" allow="pedestrian delivery bicycle" speed="3.65" length="4.67" shape="449.77,208.39 448.45,208.95 447.56,208.85 447.11,208.07 447.10,206.63"/>
    </edge>
    <edge id=":11199607344_0" function="internal">
        <lane id=":11199607344_0_0" index="0" allow="pedestrian delivery bicycle" speed="5.56" length="9.43" shape="307.79,598.66 299.58,594.02"/>
    </edge>
    <edge id=":11199607344_1" function="internal">
        <lane id=":11199607344_1_0" index="0" allow="pedestrian delivery bicycle" speed="5.56" length="10.22" shape="307.79,598.66 305.74,597.03 304.64,595.02 304.50,592.62 305.31,589.84"/>
    </edge>
    <edge id=":11199607344_2" function="internal">
        <lane id=":11199607344_2_0" index="0" allow="pedestrian delivery bicycle" speed="3.65" length="4.67" shape="307.79,598.66 307.14,597.37 307.19,596.48 307.93,595.98 309.37,595.87"/>
    </edge>
    <edge id=":11199607344_3" function="internal">
        <lane id=":11199607344_3_0" index="0" allow="pedestrian delivery bicycle" speed="5.41" length="5.45" shape="308.25,591.11 307.78,592.65 307.81,593.96 308.34,595.03 309.37,595.87"/>
    </edge>
    <edge id=":11199607344_4" function="internal">
        <lane id=":11199607344_4_0" index="0" allow="pedestrian delivery bicycle" speed="5.56" length="10.69" shape="308.25,591.11 306.69,593.64 304.72,594.97 302.35,595.10 299.58,594.02"/>
    </edge>
    <edge id=":11199607344_5" function="internal">
        <lane id=":11199607344_5_0" index="0" allow="pedestrian delivery bicycle" speed="3.65" length="4.67" shape="308.25,591.11 307.04,591.89 306.14,591.94 305.57,591.25 305.31,589.84"/>
    </edge>
    <edge id=":11199607344_6" function="internal">
        <lane id=":11199607344_6_0" index="0" allow="pedestrian delivery bicycle" speed="4.93" length="5.13" shape="301.15,591.23 302.48,591.75 303.62,591.69 304.56,591.05 305.31,589.84"/>
    </edge>
    <edge id=":11199607344_7" function="internal">
        <lane id=":11199607344_7_0" index="0" allow="pedestrian delivery bicycle" speed="5.56" length="9.43" shape="301.15,591.23 309.37,595.87"/>
    </edge>
    <edge id=":11199607344_8" function="internal">
        <lane id=":11199607344_8_0" index="0" allow="pedestrian delivery bicycle" speed="3.65" length="4.67" shape="301.15,591.23 301.81,592.52 301.76,593.41 301.02,593.91 299.58,594.02"/>
    </edge>
    <edge id=":11199607345_0" function="internal">
        <lane id=":11199607345_0_0" index="0" allow="pedestrian delivery bicycle" speed="3.65" length="4.67" shape="328.86,606.90 329.51,608.18 329.46,609.08 328.72,609.58 327.28,609.68"/>
    </edge>
    <edge id=":11199607346_0" function="internal">
        <lane id=":11199607346_0_0" index="0" allow="pedestrian delivery bicycle" speed="3.65" length="4.67" shape="296.32,592.18 295.67,590.90 295.72,590.00 296.46,589.50 297.90,589.40"/>
    </edge>
    <edge id=":11199607347_0" function="internal">
        <lane id=":11199607347_0_0" index="0" allow="pedestrian delivery bicycle" speed="6.01" length="7.96" shape="603.84,642.60 602.74,641.54 602.45,640.01 602.99,638.01 604.33,635.55"/>
    </edge>
    <edge id=":11199607347_1" function="internal">
        <lane id=":11199607347_1_0" index="0" allow="pedestrian delivery bicycle" speed="3.65" length="4.67" shape="603.84,642.60 603.18,641.32 603.22,640.43 603.95,639.92 605.39,639.81"/>
    </edge>
    <edge id=":11199607347_2" function="internal">
        <lane id=":11199607347_2_0" index="0" disallow="tram rail_urban rail rail_electric rail_fast ship container cable_car subway aircraft wheelchair scooter drone" speed="13.89" length="9.42" shape="599.19,643.44 604.33,635.55"/>
    </edge>
    <edge id=":11199607347_3" function="internal">
        <lane id=":11199607347_3_0" index="0" allow="pedestrian delivery bicycle" speed="6.28" length="7.88" shape="599.19,643.44 600.85,641.27 602.43,639.93 603.95,639.45 605.39,639.81"/>
    </edge>
    <edge id=":11199607350_0" function="internal">
        <lane id=":11199607350_0_0" index="0" allow="pedestrian delivery bicycle" speed="3.65" length="4.67" shape="620.62,639.99 621.90,639.32 622.79,639.36 623.30,640.10 623.42,641.53"/>
    </edge>
    <edge id=":11199607352_0" function="internal">
        <lane id=":11199607352_0_0" index="0" allow="pedestrian delivery bicycle" speed="3.65" length="4.67" shape="534.32,592.92 533.62,591.66 533.63,590.77 534.35,590.24 535.78,590.08"/>
    </edge>
    <edge id=":11199607353_0" function="internal">
        <lane id=":11199607353_0_0" index="0" allow="pedestrian delivery bicycle" speed="5.90" length="6.00" shape="528.32,545.19 530.17,545.54 531.69,545.45 532.86,544.90 533.70,543.91"/>
    </edge>
    <edge id=":11199607353_1" function="internal">
        <lane id=":11199607353_1_0" index="0" allow="pedestrian delivery bicycle" speed="3.65" length="4.67" shape="528.32,545.19 529.25,546.30 529.41,547.17 528.81,547.83 527.43,548.27"/>
    </edge>
    <edge id=":11199607353_2" function="internal">
        <lane id=":11199607353_2_0" index="0" allow="pedestrian delivery bicycle" speed="4.83" length="5.29" shape="529.12,552.30 529.64,550.89 529.54,549.75 528.80,548.88 527.43,548.27"/>
    </edge>
    <edge id=":11199607353_3" function="internal">
        <lane id=":11199607353_3_0" index="0" disallow="tram rail_urban rail rail_electric rail_fast ship container cable_car subway aircraft wheelchair scooter drone" speed="13.89" length="9.56" shape="529.12,552.30 533.70,543.91"/>
    </edge>
    <edge id=":11199607354_0" function="internal">
        <lane id=":11199607354_0_0" index="0" allow="pedestrian delivery bicycle" speed="3.65" length="4.67" shape="519.34,545.98 518.41,544.88 518.24,544.00 518.84,543.34 520.22,542.90"/>
    </edge>
    <edge id=":11199607356_0" function="internal">
        <lane id=":11199607356_0_0" index="0" allow="pedestrian delivery bicycle" speed="5.12" length="5.40" width="4.00" shape="188.28,526.97 186.76,526.56 185.53,526.70 184.57,527.38 183.89,528.61"/>
    </edge>
    <edge id=":11199607356_1" function="internal">
        <lane id=":11199607356_1_0" index="0" allow="pedestrian delivery bicycle" speed="3.65" length="4.67" shape="188.28,526.97 187.48,525.77 187.41,524.88 188.09,524.29 189.51,524.02"/>
    </edge>
    <edge id=":11199607356_2" function="internal">
        <lane id=":11199607356_2_0" index="0" allow="pedestrian delivery bicycle" speed="5.44" length="5.52" shape="187.06,519.75 186.84,521.08 187.17,522.23 188.06,523.21 189.51,524.02"/>
    </edge>
    <edge id=":11199607356_3" function="internal">
        <lane id=":11199607356_3_0" index="0" disallow="tram rail_urban rail rail_electric rail_fast ship container cable_car subway aircraft wheelchair scooter drone" speed="8.33" length="9.41" width="4.00" shape="187.06,519.75 183.89,528.61"/>
    </edge>
    <edge id=":11199607358_0" function="internal">
        <lane id=":11199607358_0_0" index="0" allow="pedestrian delivery bicycle" speed="3.65" length="4.67" shape="208.33,531.51 209.15,532.70 209.23,533.59 208.56,534.19 207.15,534.49"/>
    </edge>
    <edge id=":11199607359_0" function="internal">
        <lane id=":11199607359_0_0" index="0" allow="pedestrian delivery bicycle" speed="5.13" length="5.39" width="4.00" shape="178.42,554.50 176.90,554.09 175.67,554.23 174.71,554.92 174.03,556.15"/>
    </edge>
    <edge id=":11199607359_1" function="internal">
        <lane id=":11199607359_1_0" index="0" allow="pedestrian delivery bicycle" speed="3.65" length="4.67" shape="178.42,554.50 177.61,553.30 177.55,552.41 178.22,551.82 179.64,551.54"/>
    </edge>
    <edge id=":11199607359_2" function="internal">
        <lane id=":11199607359_2_0" index="0" allow="pedestrian delivery bicycle" speed="5.43" length="5.51" shape="177.20,547.29 176.98,548.62 177.31,549.77 178.19,550.74 179.64,551.54"/>
    </edge>
    <edge id=":11199607359_3" function="internal">
        <lane id=":11199607359_3_0" index="0" disallow="tram rail_urban rail rail_electric rail_fast ship container cable_car subway aircraft wheelchair scooter drone" speed="8.33" length="9.41" width="4.00" shape="177.20,547.29 174.03,556.15"/>
    </edge>
    <edge id=":11199607362_0" function="internal">
        <lane id=":11199607362_0_0" index="0" allow="pedestrian delivery bicycle" speed="3.65" length="4.67" shape="197.35,540.39 198.54,539.57 199.43,539.49 200.02,540.16 200.33,541.57"/>
    </edge>
    <edge id=":11219370190_0" function="internal">
        <lane id=":11219370190_0_0" index="0" disallow="tram rail_urban rail rail_electric rail_fast ship container cable_car subway aircraft wheelchair scooter drone" speed="8.33" length="9.47" shape="289.00,551.95 285.02,560.54"/>
    </edge>
    <edge id=":11219370190_1" function="internal">
        <lane id=":11219370190_1_0" index="0" allow="pedestrian delivery bicycle" speed="6.46" length="8.09" shape="289.00,551.95 287.70,554.19 286.25,555.63 284.66,556.25 282.92,556.07"/>
    </edge>
    <edge id=":11219370190_2" function="internal">
        <lane id=":11219370190_2_0" index="0" allow="pedestrian delivery bicycle" speed="5.99" length="8.17" shape="284.72,553.29 285.93,554.13 286.38,555.62 286.08,557.76 285.02,560.54"/>
    </edge>
    <edge id=":11219370190_3" function="internal">
        <lane id=":11219370190_3_0" index="0" allow="pedestrian delivery bicycle" speed="3.69" length="4.84" shape="284.72,553.29 285.31,554.66 285.21,555.58 284.41,556.05 282.92,556.07"/>
    </edge>
    <edge id=":11219370192_0" function="internal">
        <lane id=":11219370192_0_0" index="0" allow="pedestrian delivery bicycle" speed="3.65" length="4.67" shape="260.19,548.65 259.30,547.52 259.17,546.63 259.80,546.00 261.19,545.61"/>
    </edge>
    <edge id=":11227813018_0" function="internal">
        <lane id=":11227813018_0_0" index="0" disallow="tram rail_urban rail rail_electric rail_fast ship container cable_car subway aircraft wheelchair scooter drone" speed="13.89" length="9.40" shape="867.07,696.39 859.42,701.86"/>
    </edge>
    <edge id=":11227813018_1" function="internal">
        <lane id=":11227813018_1_0" index="0" allow="pedestrian delivery bicycle" speed="6.16" length="7.80" shape="867.07,696.39 864.72,697.83 862.77,698.50 861.22,698.39 860.07,697.53"/>
    </edge>
    <edge id=":11227813018_2" function="internal">
        <lane id=":11227813018_2_0" index="0" allow="pedestrian delivery bicycle" speed="6.05" length="7.84" shape="862.62,695.59 863.16,696.95 862.80,698.45 861.55,700.08 859.42,701.86"/>
    </edge>
    <edge id=":11227813018_3" function="internal">
        <lane id=":11227813018_3_0" index="0" allow="pedestrian delivery bicycle" speed="3.65" length="4.67" shape="862.62,695.59 862.71,697.03 862.32,697.83 861.44,698.00 860.07,697.53"/>
    </edge>
    <edge id=":11227813019_0" function="internal">
        <lane id=":11227813019_0_0" index="0" allow="pedestrian delivery bicycle" speed="3.65" length="4.67" shape="843.19,675.31 843.10,673.87 843.49,673.07 844.37,672.90 845.73,673.37"/>
    </edge>
    <edge id=":11227813021_0" function="internal">
        <lane id=":11227813021_0_0" index="0" allow="pedestrian delivery bicycle" speed="5.84" length="8.04" shape="603.87,503.12 602.91,501.89 602.93,500.36 603.92,498.54 605.88,496.43"/>
    </edge>
    <edge id=":11227813021_1" function="internal">
        <lane id=":11227813021_1_0" index="0" allow="pedestrian delivery bicycle" speed="3.65" length="4.67" shape="603.87,503.12 603.39,501.76 603.55,500.88 604.35,500.48 605.79,500.56"/>
    </edge>
    <edge id=":11227813021_2" function="internal">
        <lane id=":11227813021_2_0" index="0" disallow="tram rail_urban rail rail_electric rail_fast ship container cable_car subway aircraft wheelchair scooter drone" speed="13.89" length="9.51" shape="598.90,502.88 605.88,496.43"/>
    </edge>
    <edge id=":11227813021_3" function="internal">
        <lane id=":11227813021_3_0" index="0" allow="pedestrian delivery bicycle" speed="6.52" length="7.83" shape="598.90,502.88 601.01,501.18 602.86,500.23 604.45,500.02 605.79,500.56"/>
    </edge>
    <edge id=":11227829255_0" function="internal">
        <lane id=":11227829255_0_0" index="0" allow="pedestrian delivery bicycle" speed="3.65" length="4.67" shape="489.91,346.24 488.48,346.38 487.66,346.01 487.46,345.14 487.89,343.76"/>
    </edge>
    <edge id=":11227829257_0" function="internal">
        <lane id=":11227829257_0_0" index="0" disallow="tram rail_urban rail rail_electric rail_fast ship container cable_car subway aircraft wheelchair scooter drone" speed="8.33" length="9.32" shape="521.75,341.82 514.88,348.11"/>
    </edge>
    <edge id=":11227829257_1" function="internal">
        <lane id=":11227829257_1_0" index="0" allow="pedestrian delivery bicycle" speed="6.12" length="7.69" shape="521.75,341.82 519.56,343.48 517.71,344.35 516.19,344.43 515.01,343.73"/>
    </edge>
    <edge id=":11227829257_2" function="internal">
        <lane id=":11227829257_2_0" index="0" allow="pedestrian delivery bicycle" speed="6.11" length="7.69" shape="517.36,341.56 517.97,342.79 517.76,344.30 516.73,346.07 514.88,348.11"/>
    </edge>
    <edge id=":11227829257_3" function="internal">
        <lane id=":11227829257_3_0" index="0" allow="pedestrian delivery bicycle" speed="3.65" length="4.67" shape="517.36,341.56 517.59,342.98 517.27,343.82 516.41,344.07 515.01,343.73"/>
    </edge>
    <edge id=":11426978369_0" function="internal">
        <lane id=":11426978369_0_0" index="0" allow="pedestrian delivery bicycle" speed="5.56" length="6.40" shape="346.50,584.17 344.57,583.36 342.97,583.15 341.70,583.55 340.76,584.54"/>
    </edge>
    <edge id=":11426978369_1" function="internal">
        <lane id=":11426978369_1_0" index="0" allow="pedestrian delivery bicycle" speed="5.56" length="10.10" shape="346.50,584.17 344.26,582.54 343.08,580.59 342.94,578.30 343.84,575.69"/>
    </edge>
    <edge id=":11426978369_2" function="internal">
        <lane id=":11426978369_2_0" index="0" allow="pedestrian delivery bicycle" speed="3.65" length="4.67" shape="346.50,584.17 345.81,582.90 345.84,582.00 346.56,581.49 348.00,581.34"/>
    </edge>
    <edge id=":11426978369_3" function="internal">
        <lane id=":11426978369_3_0" index="0" allow="pedestrian delivery bicycle" speed="5.05" length="4.99" shape="346.69,577.16 346.24,578.45 346.31,579.57 346.90,580.54 348.00,581.34"/>
    </edge>
    <edge id=":11426978369_4" function="internal">
        <lane id=":11426978369_4_0" index="0" allow="pedestrian delivery bicycle" speed="5.56" length="9.51" shape="346.69,577.16 345.19,579.52 343.82,580.90 342.41,582.27 340.76,584.54"/>
    </edge>
    <edge id=":11426978369_5" function="internal">
        <lane id=":11426978369_5_0" index="0" allow="pedestrian delivery bicycle" speed="3.65" length="4.67" shape="346.69,577.16 345.43,577.86 344.53,577.85 344.00,577.13 343.84,575.69"/>
    </edge>
    <edge id=":11993909173_0" function="internal">
        <lane id=":11993909173_0_0" index="0" disallow="tram rail_urban rail rail_electric rail_fast ship container cable_car subway aircraft wheelchair scooter drone" speed="8.33" length="9.41" shape="379.53,670.63 371.25,666.16"/>
    </edge>
    <edge id=":11993909173_1" function="internal">
        <lane id=":11993909173_1_0" index="0" allow="pedestrian delivery bicycle" speed="6.23" length="7.83" shape="379.53,670.63 377.23,669.13 375.77,667.66 375.17,666.21 375.41,664.80"/>
    </edge>
    <edge id=":11993909173_2" function="internal">
        <lane id=":11993909173_2_0" index="0" allow="pedestrian delivery bicycle" speed="6.04" length="7.88" shape="378.30,666.18 377.33,667.30 375.82,667.67 373.80,667.29 371.25,666.16"/>
    </edge>
    <edge id=":11993909173_3" function="internal">
        <lane id=":11993909173_3_0" index="0" allow="pedestrian delivery bicycle" speed="3.65" length="4.67" shape="378.30,666.18 377.06,666.91 376.17,666.93 375.62,666.22 375.41,664.80"/>
    </edge>
    <edge id=":11993909175_0" function="internal">
        <lane id=":11993909175_0_0" index="0" allow="pedestrian delivery bicycle" speed="3.65" length="4.67" shape="381.83,627.15 382.53,625.89 383.29,625.42 384.12,625.75 385.02,626.88"/>
    </edge>
    <edge id=":12307920131_0" function="internal">
        <lane id=":12307920131_0_0" index="0" disallow="tram rail_urban rail rail_electric rail_fast ship container cable_car subway aircraft wheelchair scooter drone" speed="8.33" length="4.97" shape="316.59,397.58 320.99,399.88"/>
    </edge>
    <edge id=":12307920135_0" function="internal">
        <lane id=":12307920135_0_0" index="0" disallow="tram rail_urban rail rail_electric rail_fast ship container cable_car subway aircraft wheelchair scooter drone" speed="8.33" length="5.00" shape="349.11,353.06 345.14,350.02"/>
    </edge>
    <edge id=":123557248_0" function="internal">
        <lane id=":123557248_0_0" index="0" disallow="tram rail_urban rail rail_electric rail_fast ship container cable_car subway aircraft wheelchair scooter drone" speed="8.33" length="9.73" shape="427.09,300.77 425.78,303.34 424.80,305.06 423.67,306.68 421.93,308.98"/>
    </edge>
    <edge id=":123557248_1" function="internal">
        <lane id=":123557248_1_0" index="0" allow="pedestrian delivery bicycle" speed="6.16" length="8.14" shape="427.09,300.77 425.64,303.14 424.14,304.59 422.60,305.11 421.00,304.70"/>
    </edge>
    <edge id=":123557248_2" function="internal">
        <lane id=":123557248_2_0" index="0" allow="pedestrian delivery bicycle" speed="5.94" length="8.23" shape="422.52,301.88 423.76,303.02 424.08,304.58 423.47,306.57 421.93,308.98"/>
    </edge>
    <edge id=":123557248_3" function="internal">
        <lane id=":123557248_3_0" index="0" allow="pedestrian delivery bicycle" speed="3.65" length="4.67" shape="422.52,301.88 423.19,303.15 423.17,304.05 422.44,304.56 421.00,304.70"/>
    </edge>
    <edge id=":123557251_0" function="internal">
        <lane id=":123557251_0_0" index="0" disallow="tram rail_urban rail rail_electric rail_fast ship container cable_car subway aircraft wheelchair scooter drone" speed="8.33" length="7.34" shape="339.84,410.04 346.28,413.56"/>
    </edge>
    <edge id=":123557253_0" function="internal">
        <lane id=":123557253_0_0" index="0" disallow="tram rail_urban rail rail_electric rail_fast ship container cable_car subway aircraft wheelchair scooter drone" speed="6.52" length="8.69" shape="442.13,245.64 444.19,246.81 445.41,248.37 445.81,250.31 445.38,252.63"/>
    </edge>
    <edge id=":12463138985_0" function="internal">
        <lane id=":12463138985_0_0" index="0" allow="pedestrian delivery bicycle" speed="5.56" length="0.30" shape="378.72,665.30 378.59,665.58"/>
    </edge>
    <edge id=":12463138985_1" function="internal">
        <lane id=":12463138985_1_0" index="0" allow="pedestrian delivery bicycle" speed="5.56" length="0.30" shape="375.70,664.20 375.83,663.93"/>
    </edge>
    <edge id=":12531603510_0" function="internal">
        <lane id=":12531603510_0_0" index="0" disallow="tram rail_urban rail rail_electric rail_fast ship container cable_car subway aircraft wheelchair scooter drone" speed="8.33" length="5.21" shape="379.08,523.28 380.26,524.28 381.09,524.93 381.96,525.54 383.25,526.39"/>
    </edge>
    <edge id=":12531603513_0" function="internal">
        <lane id=":12531603513_0_0" index="0" disallow="tram rail_urban rail rail_electric rail_fast ship container cable_car subway aircraft wheelchair scooter drone" speed="8.33" length="3.14" shape="433.01,558.45 435.67,560.13"/>
    </edge>
    <edge id=":12531603552_0" function="internal">
        <lane id=":12531603552_0_0" index="0" allow="pedestrian bicycle" speed="2.89" length="2.92" width="2.00" shape="293.33,514.04 292.87,513.27 292.85,512.71 293.29,512.36 294.19,512.23"/>
    </edge>
    <edge id=":12531603570_0" function="internal">
        <lane id=":12531603570_0_0" index="0" allow="pedestrian bicycle" speed="2.89" length="2.93" width="2.00" shape="325.52,505.91 326.35,506.29 326.67,506.74 326.50,507.28 325.84,507.89"/>
    </edge>
    <edge id=":12989167487_0" function="internal">
        <lane id=":12989167487_0_0" index="0" allow="pedestrian delivery bicycle" speed="3.65" length="4.67" shape="409.62,111.42 411.01,111.03 411.88,111.24 412.22,112.07 412.05,113.50"/>
    </edge>
    <edge id=":13003903736_0" function="internal">
        <lane id=":13003903736_0_0" index="0" allow="pedestrian delivery bicycle" speed="3.65" length="4.67" shape="346.10,191.48 344.77,192.02 343.88,191.90 343.44,191.13 343.46,189.68"/>
    </edge>
    <edge id=":13003903738_0" function="internal">
        <lane id=":13003903738_0_0" index="0" allow="pedestrian delivery bicycle" speed="3.65" length="4.67" shape="339.49,172.53 339.31,171.10 339.65,170.27 340.52,170.05 341.91,170.43"/>
    </edge>
    <edge id=":13276532198_0" function="internal">
        <lane id=":13276532198_0_0" index="0" disallow="tram rail_urban rail rail_electric rail_fast ship container cable_car subway aircraft wheelchair scooter drone" speed="13.89" length="5.00" shape="496.67,430.66 493.10,427.16"/>
    </edge>
    <edge id=":13276541203_0" function="internal">
        <lane id=":13276541203_0_0" index="0" allow="pedestrian delivery bicycle" speed="3.65" length="4.67" shape="882.76,612.89 881.34,613.16 880.49,612.88 880.21,612.03 880.50,610.61"/>
    </edge>
    <edge id=":13276541209_0" function="internal">