<?xml version="1.0" encoding="UTF-8"?>

<!-- generated on 2026-05-12T22:10:57.233859+00:00 by Eclipse SUMO sumo v1.26.0-0000000000
-->

<sumoConfiguration xmlns:xsi="http://www.w3.org/2001/XMLSchema-instance" xsi:noNamespaceSchemaLocation="http://sumo.dlr.de/xsd/sumoConfiguration.xsd">

    <input>
        <net-file value="limassol.net.xml"/>
        <route-files value="limassol.rou.xml"/>
    </input>

    <time>
        <step-length value="0.1"/>
    </time>

</sumoConfiguration>
